*HEADING
Cantilever beam example from CCX_2.6.1,page 24 Date: 28-Dec-2013
**PS:Input is slightly modified
***
*INCLUDE, INPUT=Nall.inp
*INCLUDE, INPUT=Eall.inp
*INCLUDE, INPUT=Nfix.inp
*INCLUDE, INPUT=Nload.inp
***
*MATERIAL,NAME=EL
*ELASTIC
210E9,0.3
***
*SOLID SECTION,ELSET=Eall,MATERIAL=EL
***
*BOUNDARY
Nfix,1,3
***
*STEP
*STATIC
***
*CLOAD
Nload,2,1E9
***
*NODE PRINT,NSET=Nall
U
*EL PRINT,ELSET=Eall
S
*NODE FILE
U
*EL FILE
S
***
*END STEP

